Version 4
SHEET 1 1800 752
WIRE 208 -96 32 -96
WIRE -48 0 -208 0
WIRE 32 0 32 -96
WIRE 176 0 96 0
WIRE 176 64 176 0
WIRE 96 80 32 80
WIRE 32 96 32 80
WIRE 528 144 176 144
WIRE 32 192 32 176
WIRE 128 192 32 192
WIRE 176 192 176 144
WIRE 176 192 128 192
WIRE 528 208 528 144
WIRE 544 208 528 208
WIRE 32 224 32 192
WIRE 672 224 608 224
WIRE 736 224 672 224
WIRE 352 240 224 240
WIRE 496 240 432 240
WIRE 544 240 496 240
WIRE 224 272 224 240
WIRE 128 304 128 256
WIRE 128 304 32 304
WIRE 496 368 496 240
WIRE 544 368 496 368
WIRE 672 368 672 224
WIRE 672 368 624 368
FLAG -208 80 0
FLAG -208 0 VCC
FLAG 576 192 Vcc
FLAG 576 256 0
FLAG 224 352 0
FLAG 736 224 Out
IOPIN 736 224 Out
FLAG 32 304 0
FLAG 208 -16 0
FLAG 176 64 0
SYMBOL voltage -208 -16 R0
WINDOW 123 0 0 Left 2
WINDOW 39 0 0 Left 2
SYMATTR InstName V2
SYMATTR Value 5
SYMBOL res 448 224 R90
WINDOW 0 0 56 VBottom 2
WINDOW 3 32 56 VTop 2
SYMATTR InstName R1
SYMATTR Value 10k
SYMBOL Comparators\\LT1720 576 160 R0
SYMATTR InstName U2
SYMBOL res 640 352 R90
WINDOW 0 0 56 VBottom 2
WINDOW 3 32 56 VTop 2
SYMATTR InstName R2
SYMATTR Value 250k
SYMBOL voltage 224 256 R0
WINDOW 123 0 0 Left 2
WINDOW 39 0 0 Left 2
SYMATTR InstName V3
SYMATTR Value SINE(2.5 2.5 1k)
SYMBOL res -64 -16 R0
SYMATTR InstName R3
SYMATTR Value 10k
SYMBOL res 16 -16 R0
SYMATTR InstName R4
SYMATTR Value 6.8k
SYMBOL res 80 -16 R0
SYMATTR InstName R5
SYMATTR Value 6.8k
SYMBOL res 16 80 R0
SYMATTR InstName R6
SYMATTR Value 100k
SYMBOL res 16 208 R0
SYMATTR InstName R7
SYMATTR Value 100k
SYMBOL voltage 208 -112 R0
WINDOW 123 0 0 Left 2
WINDOW 39 0 0 Left 2
SYMATTR InstName V1
SYMATTR Value 10
SYMBOL cap 112 192 R0
SYMATTR InstName C1
SYMATTR Value 100n
TEXT -240 360 Left 2 !.tran 10m
